! RHF 3-21G

# Title Card Required

* xyz 1 2
C                  1.20484168   -0.25408254   -0.01610290 # (H)(SLT)(   0)[     0]
H                  2.07219699    0.40061360    0.04009725 # (H)(SLT)(   0)[     1]
H                  1.23496317   -0.94644581    0.82585946 # (H)(SLT)(   0)[     2]
H                  1.26299885   -0.84182335   -0.94569163 # (H)(SLT)(   0)[     3]
C                 -1.20484825   -0.25408336   -0.01608736 # (H)(SLT)(   0)[     4]
H                 -1.23484774   -0.94654720    0.82580512 # (H)(SLT)(   0)[     5]
H                 -2.07220693    0.40063246    0.04018898 # (H)(SLT)(   0)[     6]
H                 -1.26308842   -0.84171937   -0.94583257 # (H)(SLT)(   0)[     7]
N                  0.00000272    0.54587105    0.08591819 # (H)(SLT)(   0)[     8]
H                  0.00002463    1.24510669   -0.65081766 # (H)(SLT)(   0)[     9]
*

